
---------- Begin Simulation Statistics ----------
simSeconds                                   3.834944                       # Number of seconds simulated (Second)
simTicks                                 3834944216000                       # Number of ticks simulated (Tick)
finalTick                                116726473626000                       # Number of ticks from beginning of simulation (restored from checkpoints and never reset) (Tick)
simFreq                                  1000000000000                       # The number of ticks per simulated second ((Tick/Second))
hostSeconds                                   1691.09                       # Real time elapsed on the host (Second)
hostTickRate                               2267737109                       # The number of ticks simulated per host second (ticks/s) ((Tick/Second))
hostMemory                                    5947448                       # Number of bytes of host memory used (Byte)
simInsts                                    295381163                       # Number of instructions simulated (Count)
simOps                                     1054628205                       # Number of ops (including micro ops) simulated (Count)
hostInstRate                                   174669                       # Simulator instruction rate (inst/s) ((Count/Second))
hostOpRate                                     623639                       # Simulator op (including micro ops) rate (op/s) ((Count/Second))
system.apicbridge.power_state.pwrStateResidencyTicks::UNDEFINED 116726473626000                       # Cumulative time (in ticks) in various power states (Tick)
system.bridge.power_state.pwrStateResidencyTicks::UNDEFINED 116726473626000                       # Cumulative time (in ticks) in various power states (Tick)
system.clk_domain.clock                          1000                       # Clock period in ticks (Tick)
system.cpu0.numCycles                               0                       # Number of cpu cycles simulated (Cycle)
system.cpu0.cpi                                   nan                       # CPI: cycles per instruction (core level) ((Cycle/Count))
system.cpu0.ipc                                   nan                       # IPC: instructions per cycle (core level) ((Count/Cycle))
system.cpu0.numWorkItemsStarted                     0                       # Number of work items this cpu started (Count)
system.cpu0.numWorkItemsCompleted                   0                       # Number of work items this cpu completed (Count)
system.cpu0.commitStats0.numOps                     0                       # Number of ops (including micro ops) committed (thread level) (Count)
system.cpu0.commitStats0.numInstsNotNOP             0                       # Number of instructions committed excluding NOPs or prefetches (Count)
system.cpu0.commitStats0.numOpsNotNOP               0                       # Number of Ops (including micro ops) Simulated (Count)
system.cpu0.commitStats0.cpi                      nan                       # CPI: cycles per instruction (thread level) ((Cycle/Count))
system.cpu0.commitStats0.ipc                      nan                       # IPC: instructions per cycle (thread level) ((Count/Cycle))
system.cpu0.commitStats0.numMemRefs                 0                       # Number of memory references committed (Count)
system.cpu0.commitStats0.numFpInsts                 0                       # Number of float instructions (Count)
system.cpu0.commitStats0.numIntInsts                0                       # Number of integer instructions (Count)
system.cpu0.commitStats0.numLoadInsts               0                       # Number of load instructions (Count)
system.cpu0.commitStats0.numStoreInsts              0                       # Number of store instructions (Count)
system.cpu0.commitStats0.numVecInsts                0                       # Number of vector instructions (Count)
system.cpu0.commitStats0.committedInstType::No_OpClass            0                       # Class of committed instruction. (Count)
system.cpu0.commitStats0.committedInstType::IntAlu            0                       # Class of committed instruction. (Count)
system.cpu0.commitStats0.committedInstType::IntMult            0                       # Class of committed instruction. (Count)
system.cpu0.commitStats0.committedInstType::IntDiv            0                       # Class of committed instruction. (Count)
system.cpu0.commitStats0.committedInstType::FloatAdd            0                       # Class of committed instruction. (Count)
system.cpu0.commitStats0.committedInstType::FloatCmp            0                       # Class of committed instruction. (Count)
system.cpu0.commitStats0.committedInstType::FloatCvt            0                       # Class of committed instruction. (Count)
system.cpu0.commitStats0.committedInstType::FloatMult            0                       # Class of committed instruction. (Count)
system.cpu0.commitStats0.committedInstType::FloatMultAcc            0                       # Class of committed instruction. (Count)
system.cpu0.commitStats0.committedInstType::FloatDiv            0                       # Class of committed instruction. (Count)
system.cpu0.commitStats0.committedInstType::FloatMisc            0                       # Class of committed instruction. (Count)
system.cpu0.commitStats0.committedInstType::FloatSqrt            0                       # Class of committed instruction. (Count)
system.cpu0.commitStats0.committedInstType::SimdAdd            0                       # Class of committed instruction. (Count)
system.cpu0.commitStats0.committedInstType::SimdAddAcc            0                       # Class of committed instruction. (Count)
system.cpu0.commitStats0.committedInstType::SimdAlu            0                       # Class of committed instruction. (Count)
system.cpu0.commitStats0.committedInstType::SimdCmp            0                       # Class of committed instruction. (Count)
system.cpu0.commitStats0.committedInstType::SimdCvt            0                       # Class of committed instruction. (Count)
system.cpu0.commitStats0.committedInstType::SimdMisc            0                       # Class of committed instruction. (Count)
system.cpu0.commitStats0.committedInstType::SimdMult            0                       # Class of committed instruction. (Count)
system.cpu0.commitStats0.committedInstType::SimdMultAcc            0                       # Class of committed instruction. (Count)
system.cpu0.commitStats0.committedInstType::SimdMatMultAcc            0                       # Class of committed instruction. (Count)
system.cpu0.commitStats0.committedInstType::SimdShift            0                       # Class of committed instruction. (Count)
system.cpu0.commitStats0.committedInstType::SimdShiftAcc            0                       # Class of committed instruction. (Count)
system.cpu0.commitStats0.committedInstType::SimdDiv            0                       # Class of committed instruction. (Count)
system.cpu0.commitStats0.committedInstType::SimdSqrt            0                       # Class of committed instruction. (Count)
system.cpu0.commitStats0.committedInstType::SimdFloatAdd            0                       # Class of committed instruction. (Count)
system.cpu0.commitStats0.committedInstType::SimdFloatAlu            0                       # Class of committed instruction. (Count)
system.cpu0.commitStats0.committedInstType::SimdFloatCmp            0                       # Class of committed instruction. (Count)
system.cpu0.commitStats0.committedInstType::SimdFloatCvt            0                       # Class of committed instruction. (Count)
system.cpu0.commitStats0.committedInstType::SimdFloatDiv            0                       # Class of committed instruction. (Count)
system.cpu0.commitStats0.committedInstType::SimdFloatMisc            0                       # Class of committed instruction. (Count)
system.cpu0.commitStats0.committedInstType::SimdFloatMult            0                       # Class of committed instruction. (Count)
system.cpu0.commitStats0.committedInstType::SimdFloatMultAcc            0                       # Class of committed instruction. (Count)
system.cpu0.commitStats0.committedInstType::SimdFloatMatMultAcc            0                       # Class of committed instruction. (Count)
system.cpu0.commitStats0.committedInstType::SimdFloatSqrt            0                       # Class of committed instruction. (Count)
system.cpu0.commitStats0.committedInstType::SimdReduceAdd            0                       # Class of committed instruction. (Count)
system.cpu0.commitStats0.committedInstType::SimdReduceAlu            0                       # Class of committed instruction. (Count)
system.cpu0.commitStats0.committedInstType::SimdReduceCmp            0                       # Class of committed instruction. (Count)
system.cpu0.commitStats0.committedInstType::SimdFloatReduceAdd            0                       # Class of committed instruction. (Count)
system.cpu0.commitStats0.committedInstType::SimdFloatReduceCmp            0                       # Class of committed instruction. (Count)
system.cpu0.commitStats0.committedInstType::SimdAes            0                       # Class of committed instruction. (Count)
system.cpu0.commitStats0.committedInstType::SimdAesMix            0                       # Class of committed instruction. (Count)
system.cpu0.commitStats0.committedInstType::SimdSha1Hash            0                       # Class of committed instruction. (Count)
system.cpu0.commitStats0.committedInstType::SimdSha1Hash2            0                       # Class of committed instruction. (Count)
system.cpu0.commitStats0.committedInstType::SimdSha256Hash            0                       # Class of committed instruction. (Count)
system.cpu0.commitStats0.committedInstType::SimdSha256Hash2            0                       # Class of committed instruction. (Count)
system.cpu0.commitStats0.committedInstType::SimdShaSigma2            0                       # Class of committed instruction. (Count)
system.cpu0.commitStats0.committedInstType::SimdShaSigma3            0                       # Class of committed instruction. (Count)
system.cpu0.commitStats0.committedInstType::SimdPredAlu            0                       # Class of committed instruction. (Count)
system.cpu0.commitStats0.committedInstType::Matrix            0                       # Class of committed instruction. (Count)
system.cpu0.commitStats0.committedInstType::MatrixMov            0                       # Class of committed instruction. (Count)
system.cpu0.commitStats0.committedInstType::MatrixOP            0                       # Class of committed instruction. (Count)
system.cpu0.commitStats0.committedInstType::MemRead            0                       # Class of committed instruction. (Count)
system.cpu0.commitStats0.committedInstType::MemWrite            0                       # Class of committed instruction. (Count)
system.cpu0.commitStats0.committedInstType::FloatMemRead            0                       # Class of committed instruction. (Count)
system.cpu0.commitStats0.committedInstType::FloatMemWrite            0                       # Class of committed instruction. (Count)
system.cpu0.commitStats0.committedInstType::IprAccess            0                       # Class of committed instruction. (Count)
system.cpu0.commitStats0.committedInstType::InstPrefetch            0                       # Class of committed instruction. (Count)
system.cpu0.commitStats0.committedInstType::SimdUnitStrideLoad            0                       # Class of committed instruction. (Count)
system.cpu0.commitStats0.committedInstType::SimdUnitStrideStore            0                       # Class of committed instruction. (Count)
system.cpu0.commitStats0.committedInstType::SimdUnitStrideMaskLoad            0                       # Class of committed instruction. (Count)
system.cpu0.commitStats0.committedInstType::SimdUnitStrideMaskStore            0                       # Class of committed instruction. (Count)
system.cpu0.commitStats0.committedInstType::SimdStridedLoad            0                       # Class of committed instruction. (Count)
system.cpu0.commitStats0.committedInstType::SimdStridedStore            0                       # Class of committed instruction. (Count)
system.cpu0.commitStats0.committedInstType::SimdIndexedLoad            0                       # Class of committed instruction. (Count)
system.cpu0.commitStats0.committedInstType::SimdIndexedStore            0                       # Class of committed instruction. (Count)
system.cpu0.commitStats0.committedInstType::SimdWholeRegisterLoad            0                       # Class of committed instruction. (Count)
system.cpu0.commitStats0.committedInstType::SimdWholeRegisterStore            0                       # Class of committed instruction. (Count)
system.cpu0.commitStats0.committedInstType::SimdUnitStrideFaultOnlyFirstLoad            0                       # Class of committed instruction. (Count)
system.cpu0.commitStats0.committedInstType::SimdUnitStrideSegmentedLoad            0                       # Class of committed instruction. (Count)
system.cpu0.commitStats0.committedInstType::SimdUnitStrideSegmentedStore            0                       # Class of committed instruction. (Count)
system.cpu0.commitStats0.committedInstType::SimdExt            0                       # Class of committed instruction. (Count)
system.cpu0.commitStats0.committedInstType::SimdFloatExt            0                       # Class of committed instruction. (Count)
system.cpu0.commitStats0.committedInstType::SimdConfig            0                       # Class of committed instruction. (Count)
system.cpu0.commitStats0.committedInstType::total            0                       # Class of committed instruction. (Count)
system.cpu0.dcache.demandHits::switch_cpus0.data      3004812                       # number of demand (read+write) hits (Count)
system.cpu0.dcache.demandHits::total          3004812                       # number of demand (read+write) hits (Count)
system.cpu0.dcache.overallHits::switch_cpus0.data      3005136                       # number of overall hits (Count)
system.cpu0.dcache.overallHits::total         3005136                       # number of overall hits (Count)
system.cpu0.dcache.demandMisses::switch_cpus0.data        61833                       # number of demand (read+write) misses (Count)
system.cpu0.dcache.demandMisses::total          61833                       # number of demand (read+write) misses (Count)
system.cpu0.dcache.overallMisses::switch_cpus0.data        62167                       # number of overall misses (Count)
system.cpu0.dcache.overallMisses::total         62167                       # number of overall misses (Count)
system.cpu0.dcache.demandMissLatency::switch_cpus0.data   3413997000                       # number of demand (read+write) miss ticks (Tick)
system.cpu0.dcache.demandMissLatency::total   3413997000                       # number of demand (read+write) miss ticks (Tick)
system.cpu0.dcache.overallMissLatency::switch_cpus0.data   3413997000                       # number of overall miss ticks (Tick)
system.cpu0.dcache.overallMissLatency::total   3413997000                       # number of overall miss ticks (Tick)
system.cpu0.dcache.demandAccesses::switch_cpus0.data      3066645                       # number of demand (read+write) accesses (Count)
system.cpu0.dcache.demandAccesses::total      3066645                       # number of demand (read+write) accesses (Count)
system.cpu0.dcache.overallAccesses::switch_cpus0.data      3067303                       # number of overall (read+write) accesses (Count)
system.cpu0.dcache.overallAccesses::total      3067303                       # number of overall (read+write) accesses (Count)
system.cpu0.dcache.demandMissRate::switch_cpus0.data     0.020163                       # miss rate for demand accesses (Ratio)
system.cpu0.dcache.demandMissRate::total     0.020163                       # miss rate for demand accesses (Ratio)
system.cpu0.dcache.overallMissRate::switch_cpus0.data     0.020268                       # miss rate for overall accesses (Ratio)
system.cpu0.dcache.overallMissRate::total     0.020268                       # miss rate for overall accesses (Ratio)
system.cpu0.dcache.demandAvgMissLatency::switch_cpus0.data 55213.187133                       # average overall miss latency in ticks ((Tick/Count))
system.cpu0.dcache.demandAvgMissLatency::total 55213.187133                       # average overall miss latency in ticks ((Tick/Count))
system.cpu0.dcache.overallAvgMissLatency::switch_cpus0.data 54916.547364                       # average overall miss latency ((Tick/Count))
system.cpu0.dcache.overallAvgMissLatency::total 54916.547364                       # average overall miss latency ((Tick/Count))
system.cpu0.dcache.blockedCycles::no_mshrs            0                       # number of cycles access was blocked (Cycle)
system.cpu0.dcache.blockedCycles::no_targets          132                       # number of cycles access was blocked (Cycle)
system.cpu0.dcache.blockedCauses::no_mshrs            0                       # number of times access was blocked (Count)
system.cpu0.dcache.blockedCauses::no_targets            2                       # number of times access was blocked (Count)
system.cpu0.dcache.avgBlocked::no_mshrs           nan                       # average number of cycles each access was blocked ((Cycle/Count))
system.cpu0.dcache.avgBlocked::no_targets           66                       # average number of cycles each access was blocked ((Cycle/Count))
system.cpu0.dcache.writebacks::writebacks        19423                       # number of writebacks (Count)
system.cpu0.dcache.writebacks::total            19423                       # number of writebacks (Count)
system.cpu0.dcache.demandMshrHits::switch_cpus0.data        22911                       # number of demand (read+write) MSHR hits (Count)
system.cpu0.dcache.demandMshrHits::total        22911                       # number of demand (read+write) MSHR hits (Count)
system.cpu0.dcache.overallMshrHits::switch_cpus0.data        22911                       # number of overall MSHR hits (Count)
system.cpu0.dcache.overallMshrHits::total        22911                       # number of overall MSHR hits (Count)
system.cpu0.dcache.demandMshrMisses::switch_cpus0.data        38922                       # number of demand (read+write) MSHR misses (Count)
system.cpu0.dcache.demandMshrMisses::total        38922                       # number of demand (read+write) MSHR misses (Count)
system.cpu0.dcache.overallMshrMisses::switch_cpus0.data        39256                       # number of overall MSHR misses (Count)
system.cpu0.dcache.overallMshrMisses::total        39256                       # number of overall MSHR misses (Count)
system.cpu0.dcache.overallMshrUncacheable::switch_cpus0.data         1396                       # number of overall MSHR uncacheable misses (Count)
system.cpu0.dcache.overallMshrUncacheable::total         1396                       # number of overall MSHR uncacheable misses (Count)
system.cpu0.dcache.demandMshrMissLatency::switch_cpus0.data   2063626000                       # number of demand (read+write) MSHR miss ticks (Tick)
system.cpu0.dcache.demandMshrMissLatency::total   2063626000                       # number of demand (read+write) MSHR miss ticks (Tick)
system.cpu0.dcache.overallMshrMissLatency::switch_cpus0.data   2092672000                       # number of overall MSHR miss ticks (Tick)
system.cpu0.dcache.overallMshrMissLatency::total   2092672000                       # number of overall MSHR miss ticks (Tick)
system.cpu0.dcache.overallMshrUncacheableLatency::switch_cpus0.data      7998000                       # number of overall MSHR uncacheable ticks (Tick)
system.cpu0.dcache.overallMshrUncacheableLatency::total      7998000                       # number of overall MSHR uncacheable ticks (Tick)
system.cpu0.dcache.demandMshrMissRate::switch_cpus0.data     0.012692                       # mshr miss ratio for demand accesses (Ratio)
system.cpu0.dcache.demandMshrMissRate::total     0.012692                       # mshr miss ratio for demand accesses (Ratio)
system.cpu0.dcache.overallMshrMissRate::switch_cpus0.data     0.012798                       # mshr miss ratio for overall accesses (Ratio)
system.cpu0.dcache.overallMshrMissRate::total     0.012798                       # mshr miss ratio for overall accesses (Ratio)
system.cpu0.dcache.demandAvgMshrMissLatency::switch_cpus0.data 53019.526232                       # average overall mshr miss latency ((Tick/Count))
system.cpu0.dcache.demandAvgMshrMissLatency::total 53019.526232                       # average overall mshr miss latency ((Tick/Count))
system.cpu0.dcache.overallAvgMshrMissLatency::switch_cpus0.data 53308.335032                       # average overall mshr miss latency ((Tick/Count))
system.cpu0.dcache.overallAvgMshrMissLatency::total 53308.335032                       # average overall mshr miss latency ((Tick/Count))
system.cpu0.dcache.overallAvgMshrUncacheableLatency::switch_cpus0.data  5729.226361                       # average overall mshr uncacheable latency ((Tick/Count))
system.cpu0.dcache.overallAvgMshrUncacheableLatency::total  5729.226361                       # average overall mshr uncacheable latency ((Tick/Count))
system.cpu0.dcache.replacements                 30595                       # number of replacements (Count)
system.cpu0.dcache.LockedRMWReadReq.hits::switch_cpus0.data        22473                       # number of LockedRMWReadReq hits (Count)
system.cpu0.dcache.LockedRMWReadReq.hits::total        22473                       # number of LockedRMWReadReq hits (Count)
system.cpu0.dcache.LockedRMWReadReq.misses::switch_cpus0.data         1651                       # number of LockedRMWReadReq misses (Count)
system.cpu0.dcache.LockedRMWReadReq.misses::total         1651                       # number of LockedRMWReadReq misses (Count)
system.cpu0.dcache.LockedRMWReadReq.missLatency::switch_cpus0.data     52176000                       # number of LockedRMWReadReq miss ticks (Tick)
system.cpu0.dcache.LockedRMWReadReq.missLatency::total     52176000                       # number of LockedRMWReadReq miss ticks (Tick)
system.cpu0.dcache.LockedRMWReadReq.accesses::switch_cpus0.data        24124                       # number of LockedRMWReadReq accesses(hits+misses) (Count)
system.cpu0.dcache.LockedRMWReadReq.accesses::total        24124                       # number of LockedRMWReadReq accesses(hits+misses) (Count)
system.cpu0.dcache.LockedRMWReadReq.missRate::switch_cpus0.data     0.068438                       # miss rate for LockedRMWReadReq accesses (Ratio)
system.cpu0.dcache.LockedRMWReadReq.missRate::total     0.068438                       # miss rate for LockedRMWReadReq accesses (Ratio)
system.cpu0.dcache.LockedRMWReadReq.avgMissLatency::switch_cpus0.data 31602.665051                       # average LockedRMWReadReq miss latency ((Tick/Count))
system.cpu0.dcache.LockedRMWReadReq.avgMissLatency::total 31602.665051                       # average LockedRMWReadReq miss latency ((Tick/Count))
system.cpu0.dcache.LockedRMWReadReq.mshrHits::switch_cpus0.data            1                       # number of LockedRMWReadReq MSHR hits (Count)
system.cpu0.dcache.LockedRMWReadReq.mshrHits::total            1                       # number of LockedRMWReadReq MSHR hits (Count)
system.cpu0.dcache.LockedRMWReadReq.mshrMisses::switch_cpus0.data         1650                       # number of LockedRMWReadReq MSHR misses (Count)
system.cpu0.dcache.LockedRMWReadReq.mshrMisses::total         1650                       # number of LockedRMWReadReq MSHR misses (Count)
system.cpu0.dcache.LockedRMWReadReq.mshrMissLatency::switch_cpus0.data    304940000                       # number of LockedRMWReadReq MSHR miss ticks (Tick)
system.cpu0.dcache.LockedRMWReadReq.mshrMissLatency::total    304940000                       # number of LockedRMWReadReq MSHR miss ticks (Tick)
system.cpu0.dcache.LockedRMWReadReq.mshrMissRate::switch_cpus0.data     0.068397                       # mshr miss rate for LockedRMWReadReq accesses (Ratio)
system.cpu0.dcache.LockedRMWReadReq.mshrMissRate::total     0.068397                       # mshr miss rate for LockedRMWReadReq accesses (Ratio)
system.cpu0.dcache.LockedRMWReadReq.avgMshrMissLatency::switch_cpus0.data 184812.121212                       # average LockedRMWReadReq mshr miss latency ((Tick/Count))
system.cpu0.dcache.LockedRMWReadReq.avgMshrMissLatency::total 184812.121212                       # average LockedRMWReadReq mshr miss latency ((Tick/Count))
system.cpu0.dcache.LockedRMWWriteReq.hits::switch_cpus0.data        24124                       # number of LockedRMWWriteReq hits (Count)
system.cpu0.dcache.LockedRMWWriteReq.hits::total        24124                       # number of LockedRMWWriteReq hits (Count)
system.cpu0.dcache.LockedRMWWriteReq.accesses::switch_cpus0.data        24124                       # number of LockedRMWWriteReq accesses(hits+misses) (Count)
system.cpu0.dcache.LockedRMWWriteReq.accesses::total        24124                       # number of LockedRMWWriteReq accesses(hits+misses) (Count)
system.cpu0.dcache.ReadReq.hits::switch_cpus0.data      1712737                       # number of ReadReq hits (Count)
system.cpu0.dcache.ReadReq.hits::total        1712737                       # number of ReadReq hits (Count)
system.cpu0.dcache.ReadReq.misses::switch_cpus0.data        44283                       # number of ReadReq misses (Count)
system.cpu0.dcache.ReadReq.misses::total        44283                       # number of ReadReq misses (Count)
system.cpu0.dcache.ReadReq.missLatency::switch_cpus0.data   2418762000                       # number of ReadReq miss ticks (Tick)
system.cpu0.dcache.ReadReq.missLatency::total   2418762000                       # number of ReadReq miss ticks (Tick)
system.cpu0.dcache.ReadReq.accesses::switch_cpus0.data      1757020                       # number of ReadReq accesses(hits+misses) (Count)
system.cpu0.dcache.ReadReq.accesses::total      1757020                       # number of ReadReq accesses(hits+misses) (Count)
system.cpu0.dcache.ReadReq.missRate::switch_cpus0.data     0.025203                       # miss rate for ReadReq accesses (Ratio)
system.cpu0.dcache.ReadReq.missRate::total     0.025203                       # miss rate for ReadReq accesses (Ratio)
system.cpu0.dcache.ReadReq.avgMissLatency::switch_cpus0.data 54620.554163                       # average ReadReq miss latency ((Tick/Count))
system.cpu0.dcache.ReadReq.avgMissLatency::total 54620.554163                       # average ReadReq miss latency ((Tick/Count))
system.cpu0.dcache.ReadReq.mshrHits::switch_cpus0.data        22795                       # number of ReadReq MSHR hits (Count)
system.cpu0.dcache.ReadReq.mshrHits::total        22795                       # number of ReadReq MSHR hits (Count)
system.cpu0.dcache.ReadReq.mshrMisses::switch_cpus0.data        21488                       # number of ReadReq MSHR misses (Count)
system.cpu0.dcache.ReadReq.mshrMisses::total        21488                       # number of ReadReq MSHR misses (Count)
system.cpu0.dcache.ReadReq.mshrUncacheable::switch_cpus0.data           36                       # number of ReadReq MSHR uncacheable (Count)
system.cpu0.dcache.ReadReq.mshrUncacheable::total           36                       # number of ReadReq MSHR uncacheable (Count)
system.cpu0.dcache.ReadReq.mshrMissLatency::switch_cpus0.data   1112111000                       # number of ReadReq MSHR miss ticks (Tick)
system.cpu0.dcache.ReadReq.mshrMissLatency::total   1112111000                       # number of ReadReq MSHR miss ticks (Tick)
system.cpu0.dcache.ReadReq.mshrUncacheableLatency::switch_cpus0.data      7998000                       # number of ReadReq MSHR uncacheable ticks (Tick)
system.cpu0.dcache.ReadReq.mshrUncacheableLatency::total      7998000                       # number of ReadReq MSHR uncacheable ticks (Tick)
system.cpu0.dcache.ReadReq.mshrMissRate::switch_cpus0.data     0.012230                       # mshr miss rate for ReadReq accesses (Ratio)
system.cpu0.dcache.ReadReq.mshrMissRate::total     0.012230                       # mshr miss rate for ReadReq accesses (Ratio)
system.cpu0.dcache.ReadReq.avgMshrMissLatency::switch_cpus0.data 51754.979523                       # average ReadReq mshr miss latency ((Tick/Count))
system.cpu0.dcache.ReadReq.avgMshrMissLatency::total 51754.979523                       # average ReadReq mshr miss latency ((Tick/Count))
system.cpu0.dcache.ReadReq.avgMshrUncacheableLatency::switch_cpus0.data 222166.666667                       # average ReadReq mshr uncacheable latency ((Tick/Count))
system.cpu0.dcache.ReadReq.avgMshrUncacheableLatency::total 222166.666667                       # average ReadReq mshr uncacheable latency ((Tick/Count))
system.cpu0.dcache.SoftPFReq.hits::switch_cpus0.data          324                       # number of SoftPFReq hits (Count)
system.cpu0.dcache.SoftPFReq.hits::total          324                       # number of SoftPFReq hits (Count)
system.cpu0.dcache.SoftPFReq.misses::switch_cpus0.data          334                       # number of SoftPFReq misses (Count)
system.cpu0.dcache.SoftPFReq.misses::total          334                       # number of SoftPFReq misses (Count)
system.cpu0.dcache.SoftPFReq.accesses::switch_cpus0.data          658                       # number of SoftPFReq accesses(hits+misses) (Count)
system.cpu0.dcache.SoftPFReq.accesses::total          658                       # number of SoftPFReq accesses(hits+misses) (Count)
system.cpu0.dcache.SoftPFReq.missRate::switch_cpus0.data     0.507599                       # miss rate for SoftPFReq accesses (Ratio)
system.cpu0.dcache.SoftPFReq.missRate::total     0.507599                       # miss rate for SoftPFReq accesses (Ratio)
system.cpu0.dcache.SoftPFReq.mshrMisses::switch_cpus0.data          334                       # number of SoftPFReq MSHR misses (Count)
system.cpu0.dcache.SoftPFReq.mshrMisses::total          334                       # number of SoftPFReq MSHR misses (Count)
system.cpu0.dcache.SoftPFReq.mshrMissLatency::switch_cpus0.data     29046000                       # number of SoftPFReq MSHR miss ticks (Tick)
system.cpu0.dcache.SoftPFReq.mshrMissLatency::total     29046000                       # number of SoftPFReq MSHR miss ticks (Tick)
system.cpu0.dcache.SoftPFReq.mshrMissRate::switch_cpus0.data     0.507599                       # mshr miss rate for SoftPFReq accesses (Ratio)
system.cpu0.dcache.SoftPFReq.mshrMissRate::total     0.507599                       # mshr miss rate for SoftPFReq accesses (Ratio)
system.cpu0.dcache.SoftPFReq.avgMshrMissLatency::switch_cpus0.data 86964.071856                       # average SoftPFReq mshr miss latency ((Tick/Count))
system.cpu0.dcache.SoftPFReq.avgMshrMissLatency::total 86964.071856                       # average SoftPFReq mshr miss latency ((Tick/Count))
system.cpu0.dcache.WriteReq.hits::switch_cpus0.data      1292075                       # number of WriteReq hits (Count)
system.cpu0.dcache.WriteReq.hits::total       1292075                       # number of WriteReq hits (Count)
system.cpu0.dcache.WriteReq.misses::switch_cpus0.data        17550                       # number of WriteReq misses (Count)
system.cpu0.dcache.WriteReq.misses::total        17550                       # number of WriteReq misses (Count)
system.cpu0.dcache.WriteReq.missLatency::switch_cpus0.data    995235000                       # number of WriteReq miss ticks (Tick)
system.cpu0.dcache.WriteReq.missLatency::total    995235000                       # number of WriteReq miss ticks (Tick)
system.cpu0.dcache.WriteReq.accesses::switch_cpus0.data      1309625                       # number of WriteReq accesses(hits+misses) (Count)
system.cpu0.dcache.WriteReq.accesses::total      1309625                       # number of WriteReq accesses(hits+misses) (Count)
system.cpu0.dcache.WriteReq.missRate::switch_cpus0.data     0.013401                       # miss rate for WriteReq accesses (Ratio)
system.cpu0.dcache.WriteReq.missRate::total     0.013401                       # miss rate for WriteReq accesses (Ratio)
system.cpu0.dcache.WriteReq.avgMissLatency::switch_cpus0.data 56708.547009                       # average WriteReq miss latency ((Tick/Count))
system.cpu0.dcache.WriteReq.avgMissLatency::total 56708.547009                       # average WriteReq miss latency ((Tick/Count))
system.cpu0.dcache.WriteReq.mshrHits::switch_cpus0.data          116                       # number of WriteReq MSHR hits (Count)
system.cpu0.dcache.WriteReq.mshrHits::total          116                       # number of WriteReq MSHR hits (Count)
system.cpu0.dcache.WriteReq.mshrMisses::switch_cpus0.data        17434                       # number of WriteReq MSHR misses (Count)
system.cpu0.dcache.WriteReq.mshrMisses::total        17434                       # number of WriteReq MSHR misses (Count)
system.cpu0.dcache.WriteReq.mshrUncacheable::switch_cpus0.data         1360                       # number of WriteReq MSHR uncacheable (Count)
system.cpu0.dcache.WriteReq.mshrUncacheable::total         1360                       # number of WriteReq MSHR uncacheable (Count)
system.cpu0.dcache.WriteReq.mshrMissLatency::switch_cpus0.data    951515000                       # number of WriteReq MSHR miss ticks (Tick)
system.cpu0.dcache.WriteReq.mshrMissLatency::total    951515000                       # number of WriteReq MSHR miss ticks (Tick)
system.cpu0.dcache.WriteReq.mshrMissRate::switch_cpus0.data     0.013312                       # mshr miss rate for WriteReq accesses (Ratio)
system.cpu0.dcache.WriteReq.mshrMissRate::total     0.013312                       # mshr miss rate for WriteReq accesses (Ratio)
system.cpu0.dcache.WriteReq.avgMshrMissLatency::switch_cpus0.data 54578.123208                       # average WriteReq mshr miss latency ((Tick/Count))
system.cpu0.dcache.WriteReq.avgMshrMissLatency::total 54578.123208                       # average WriteReq mshr miss latency ((Tick/Count))
system.cpu0.dcache.power_state.pwrStateResidencyTicks::UNDEFINED 116726473626000                       # Cumulative time (in ticks) in various power states (Tick)
system.cpu0.dcache.tags.tagsInUse          497.601377                       # Average ticks per tags in use ((Tick/Count))
system.cpu0.dcache.tags.totalRefs             3204314                       # Total number of references to valid blocks. (Count)
system.cpu0.dcache.tags.sampledRefs             33937                       # Sample count of references to valid blocks. (Count)
system.cpu0.dcache.tags.avgRefs             94.419483                       # Average number of references to valid blocks. ((Count/Count))
system.cpu0.dcache.tags.warmupTick                  0                       # The tick when the warmup percentage was hit. (Tick)
system.cpu0.dcache.tags.occupancies::switch_cpus0.data   497.601377                       # Average occupied blocks per tick, per requestor ((Count/Tick))
system.cpu0.dcache.tags.avgOccs::switch_cpus0.data     0.971878                       # Average percentage of cache occupancy ((Ratio/Tick))
system.cpu0.dcache.tags.avgOccs::total       0.971878                       # Average percentage of cache occupancy ((Ratio/Tick))
system.cpu0.dcache.tags.occupanciesTaskId::1024          496                       # Occupied blocks per task id (Count)
system.cpu0.dcache.tags.ageTaskId_1024::2           33                       # Occupied blocks per task id, per block age (Count)
system.cpu0.dcache.tags.ageTaskId_1024::3          125                       # Occupied blocks per task id, per block age (Count)
system.cpu0.dcache.tags.ageTaskId_1024::4          338                       # Occupied blocks per task id, per block age (Count)
system.cpu0.dcache.tags.ratioOccsTaskId::1024     0.968750                       # Ratio of occupied blocks and all blocks, per task id (Ratio)
system.cpu0.dcache.tags.tagAccesses          24957833                       # Number of tag accesses (Count)
system.cpu0.dcache.tags.dataAccesses         24957833                       # Number of data accesses (Count)
system.cpu0.dcache.tags.power_state.pwrStateResidencyTicks::UNDEFINED 116726473626000                       # Cumulative time (in ticks) in various power states (Tick)
system.cpu0.dtb_walker_cache.demandHits::switch_cpus0.mmu.dtb.walker        22586                       # number of demand (read+write) hits (Count)
system.cpu0.dtb_walker_cache.demandHits::total        22586                       # number of demand (read+write) hits (Count)
system.cpu0.dtb_walker_cache.overallHits::switch_cpus0.mmu.dtb.walker        22586                       # number of overall hits (Count)
system.cpu0.dtb_walker_cache.overallHits::total        22586                       # number of overall hits (Count)
system.cpu0.dtb_walker_cache.demandMisses::switch_cpus0.mmu.dtb.walker         6495                       # number of demand (read+write) misses (Count)
system.cpu0.dtb_walker_cache.demandMisses::total         6495                       # number of demand (read+write) misses (Count)
system.cpu0.dtb_walker_cache.overallMisses::switch_cpus0.mmu.dtb.walker         6495                       # number of overall misses (Count)
system.cpu0.dtb_walker_cache.overallMisses::total         6495                       # number of overall misses (Count)
system.cpu0.dtb_walker_cache.demandMissLatency::switch_cpus0.mmu.dtb.walker    188588000                       # number of demand (read+write) miss ticks (Tick)
system.cpu0.dtb_walker_cache.demandMissLatency::total    188588000                       # number of demand (read+write) miss ticks (Tick)
system.cpu0.dtb_walker_cache.overallMissLatency::switch_cpus0.mmu.dtb.walker    188588000                       # number of overall miss ticks (Tick)
system.cpu0.dtb_walker_cache.overallMissLatency::total    188588000                       # number of overall miss ticks (Tick)
system.cpu0.dtb_walker_cache.demandAccesses::switch_cpus0.mmu.dtb.walker        29081                       # number of demand (read+write) accesses (Count)
system.cpu0.dtb_walker_cache.demandAccesses::total        29081                       # number of demand (read+write) accesses (Count)
system.cpu0.dtb_walker_cache.overallAccesses::switch_cpus0.mmu.dtb.walker        29081                       # number of overall (read+write) accesses (Count)
system.cpu0.dtb_walker_cache.overallAccesses::total        29081                       # number of overall (read+write) accesses (Count)
system.cpu0.dtb_walker_cache.demandMissRate::switch_cpus0.mmu.dtb.walker     0.223342                       # miss rate for demand accesses (Ratio)
system.cpu0.dtb_walker_cache.demandMissRate::total     0.223342                       # miss rate for demand accesses (Ratio)
system.cpu0.dtb_walker_cache.overallMissRate::switch_cpus0.mmu.dtb.walker     0.223342                       # miss rate for overall accesses (Ratio)
system.cpu0.dtb_walker_cache.overallMissRate::total     0.223342                       # miss rate for overall accesses (Ratio)
system.cpu0.dtb_walker_cache.demandAvgMissLatency::switch_cpus0.mmu.dtb.walker 29035.873749                       # average overall miss latency in ticks ((Tick/Count))
system.cpu0.dtb_walker_cache.demandAvgMissLatency::total 29035.873749                       # average overall miss latency in ticks ((Tick/Count))
system.cpu0.dtb_walker_cache.overallAvgMissLatency::switch_cpus0.mmu.dtb.walker 29035.873749                       # average overall miss latency ((Tick/Count))
system.cpu0.dtb_walker_cache.overallAvgMissLatency::total 29035.873749                       # average overall miss latency ((Tick/Count))
system.cpu0.dtb_walker_cache.blockedCycles::no_mshrs            0                       # number of cycles access was blocked (Cycle)
system.cpu0.dtb_walker_cache.blockedCycles::no_targets            0                       # number of cycles access was blocked (Cycle)
system.cpu0.dtb_walker_cache.blockedCauses::no_mshrs            0                       # number of times access was blocked (Count)
system.cpu0.dtb_walker_cache.blockedCauses::no_targets            0                       # number of times access was blocked (Count)
system.cpu0.dtb_walker_cache.avgBlocked::no_mshrs          nan                       # average number of cycles each access was blocked ((Cycle/Count))
system.cpu0.dtb_walker_cache.avgBlocked::no_targets          nan                       # average number of cycles each access was blocked ((Cycle/Count))
system.cpu0.dtb_walker_cache.writebacks::writebacks         1166                       # number of writebacks (Count)
system.cpu0.dtb_walker_cache.writebacks::total         1166                       # number of writebacks (Count)
system.cpu0.dtb_walker_cache.demandMshrMisses::switch_cpus0.mmu.dtb.walker         6495                       # number of demand (read+write) MSHR misses (Count)
system.cpu0.dtb_walker_cache.demandMshrMisses::total         6495                       # number of demand (read+write) MSHR misses (Count)
system.cpu0.dtb_walker_cache.overallMshrMisses::switch_cpus0.mmu.dtb.walker         6495                       # number of overall MSHR misses (Count)
system.cpu0.dtb_walker_cache.overallMshrMisses::total         6495                       # number of overall MSHR misses (Count)
system.cpu0.dtb_walker_cache.demandMshrMissLatency::switch_cpus0.mmu.dtb.walker    175598000                       # number of demand (read+write) MSHR miss ticks (Tick)
system.cpu0.dtb_walker_cache.demandMshrMissLatency::total    175598000                       # number of demand (read+write) MSHR miss ticks (Tick)
system.cpu0.dtb_walker_cache.overallMshrMissLatency::switch_cpus0.mmu.dtb.walker    175598000                       # number of overall MSHR miss ticks (Tick)
system.cpu0.dtb_walker_cache.overallMshrMissLatency::total    175598000                       # number of overall MSHR miss ticks (Tick)
system.cpu0.dtb_walker_cache.demandMshrMissRate::switch_cpus0.mmu.dtb.walker     0.223342                       # mshr miss ratio for demand accesses (Ratio)
system.cpu0.dtb_walker_cache.demandMshrMissRate::total     0.223342                       # mshr miss ratio for demand accesses (Ratio)
system.cpu0.dtb_walker_cache.overallMshrMissRate::switch_cpus0.mmu.dtb.walker     0.223342                       # mshr miss ratio for overall accesses (Ratio)
system.cpu0.dtb_walker_cache.overallMshrMissRate::total     0.223342                       # mshr miss ratio for overall accesses (Ratio)
system.cpu0.dtb_walker_cache.demandAvgMshrMissLatency::switch_cpus0.mmu.dtb.walker 27035.873749                       # average overall mshr miss latency ((Tick/Count))
system.cpu0.dtb_walker_cache.demandAvgMshrMissLatency::total 27035.873749                       # average overall mshr miss latency ((Tick/Count))
system.cpu0.dtb_walker_cache.overallAvgMshrMissLatency::switch_cpus0.mmu.dtb.walker 27035.873749                       # average overall mshr miss latency ((Tick/Count))
system.cpu0.dtb_walker_cache.overallAvgMshrMissLatency::total 27035.873749                       # average overall mshr miss latency ((Tick/Count))
system.cpu0.dtb_walker_cache.replacements         6385                       # number of replacements (Count)
system.cpu0.dtb_walker_cache.ReadReq.hits::switch_cpus0.mmu.dtb.walker        22586                       # number of ReadReq hits (Count)
system.cpu0.dtb_walker_cache.ReadReq.hits::total        22586                       # number of ReadReq hits (Count)
system.cpu0.dtb_walker_cache.ReadReq.misses::switch_cpus0.mmu.dtb.walker         6495                       # number of ReadReq misses (Count)
system.cpu0.dtb_walker_cache.ReadReq.misses::total         6495                       # number of ReadReq misses (Count)
system.cpu0.dtb_walker_cache.ReadReq.missLatency::switch_cpus0.mmu.dtb.walker    188588000                       # number of ReadReq miss ticks (Tick)
system.cpu0.dtb_walker_cache.ReadReq.missLatency::total    188588000                       # number of ReadReq miss ticks (Tick)
system.cpu0.dtb_walker_cache.ReadReq.accesses::switch_cpus0.mmu.dtb.walker        29081                       # number of ReadReq accesses(hits+misses) (Count)
system.cpu0.dtb_walker_cache.ReadReq.accesses::total        29081                       # number of ReadReq accesses(hits+misses) (Count)
system.cpu0.dtb_walker_cache.ReadReq.missRate::switch_cpus0.mmu.dtb.walker     0.223342                       # miss rate for ReadReq accesses (Ratio)
system.cpu0.dtb_walker_cache.ReadReq.missRate::total     0.223342                       # miss rate for ReadReq accesses (Ratio)
system.cpu0.dtb_walker_cache.ReadReq.avgMissLatency::switch_cpus0.mmu.dtb.walker 29035.873749                       # average ReadReq miss latency ((Tick/Count))
system.cpu0.dtb_walker_cache.ReadReq.avgMissLatency::total 29035.873749                       # average ReadReq miss latency ((Tick/Count))
system.cpu0.dtb_walker_cache.ReadReq.mshrMisses::switch_cpus0.mmu.dtb.walker         6495                       # number of ReadReq MSHR misses (Count)
system.cpu0.dtb_walker_cache.ReadReq.mshrMisses::total         6495                       # number of ReadReq MSHR misses (Count)
system.cpu0.dtb_walker_cache.ReadReq.mshrMissLatency::switch_cpus0.mmu.dtb.walker    175598000                       # number of ReadReq MSHR miss ticks (Tick)
system.cpu0.dtb_walker_cache.ReadReq.mshrMissLatency::total    175598000                       # number of ReadReq MSHR miss ticks (Tick)
system.cpu0.dtb_walker_cache.ReadReq.mshrMissRate::switch_cpus0.mmu.dtb.walker     0.223342                       # mshr miss rate for ReadReq accesses (Ratio)
system.cpu0.dtb_walker_cache.ReadReq.mshrMissRate::total     0.223342                       # mshr miss rate for ReadReq accesses (Ratio)
system.cpu0.dtb_walker_cache.ReadReq.avgMshrMissLatency::switch_cpus0.mmu.dtb.walker 27035.873749                       # average ReadReq mshr miss latency ((Tick/Count))
system.cpu0.dtb_walker_cache.ReadReq.avgMshrMissLatency::total 27035.873749                       # average ReadReq mshr miss latency ((Tick/Count))
system.cpu0.dtb_walker_cache.power_state.pwrStateResidencyTicks::UNDEFINED 116726473626000                       # Cumulative time (in ticks) in various power states (Tick)
system.cpu0.dtb_walker_cache.tags.tagsInUse    15.997837                       # Average ticks per tags in use ((Tick/Count))
system.cpu0.dtb_walker_cache.tags.totalRefs        29253                       # Total number of references to valid blocks. (Count)
system.cpu0.dtb_walker_cache.tags.sampledRefs         6511                       # Sample count of references to valid blocks. (Count)
system.cpu0.dtb_walker_cache.tags.avgRefs     4.492858                       # Average number of references to valid blocks. ((Count/Count))
system.cpu0.dtb_walker_cache.tags.warmupTick            0                       # The tick when the warmup percentage was hit. (Tick)
system.cpu0.dtb_walker_cache.tags.occupancies::switch_cpus0.mmu.dtb.walker    15.997837                       # Average occupied blocks per tick, per requestor ((Count/Tick))
system.cpu0.dtb_walker_cache.tags.avgOccs::switch_cpus0.mmu.dtb.walker     0.999865                       # Average percentage of cache occupancy ((Ratio/Tick))
system.cpu0.dtb_walker_cache.tags.avgOccs::total     0.999865                       # Average percentage of cache occupancy ((Ratio/Tick))
system.cpu0.dtb_walker_cache.tags.occupanciesTaskId::1024           16                       # Occupied blocks per task id (Count)
system.cpu0.dtb_walker_cache.tags.ageTaskId_1024::2            2                       # Occupied blocks per task id, per block age (Count)
system.cpu0.dtb_walker_cache.tags.ageTaskId_1024::3            9                       # Occupied blocks per task id, per block age (Count)
system.cpu0.dtb_walker_cache.tags.ageTaskId_1024::4            5                       # Occupied blocks per task id, per block age (Count)
system.cpu0.dtb_walker_cache.tags.ratioOccsTaskId::1024            1                       # Ratio of occupied blocks and all blocks, per task id (Ratio)
system.cpu0.dtb_walker_cache.tags.tagAccesses        64657                       # Number of tag accesses (Count)
system.cpu0.dtb_walker_cache.tags.dataAccesses        64657                       # Number of data accesses (Count)
system.cpu0.dtb_walker_cache.tags.power_state.pwrStateResidencyTicks::UNDEFINED 116726473626000                       # Cumulative time (in ticks) in various power states (Tick)
system.cpu0.exec_context.thread_0.numMatAluAccesses            0                       # Number of matrix alu accesses (Count)
system.cpu0.exec_context.thread_0.numCallsReturns            0                       # Number of times a function call or return occured (Count)
system.cpu0.exec_context.thread_0.numMatInsts            0                       # Number of matrix instructions (Count)
system.cpu0.exec_context.thread_0.numIdleCycles            0                       # Number of idle cycles (Cycle)
system.cpu0.exec_context.thread_0.numBusyCycles            0                       # Number of busy cycles (Cycle)
system.cpu0.exec_context.thread_0.notIdleFraction            1                       # Percentage of non-idle cycles (Ratio)
system.cpu0.exec_context.thread_0.idleFraction            0                       # Percentage of idle cycles (Ratio)
system.cpu0.executeStats0.numInsts                  0                       # Number of executed instructions (Count)
system.cpu0.executeStats0.numNop                    0                       # Number of nop insts executed (Count)
system.cpu0.executeStats0.numBranches               0                       # Number of branches executed (Count)
system.cpu0.executeStats0.numLoadInsts              0                       # Number of load instructions executed (Count)
system.cpu0.executeStats0.numStoreInsts             0                       # Number of stores executed (Count)
system.cpu0.executeStats0.instRate                nan                       # Inst execution rate ((Count/Cycle))
system.cpu0.executeStats0.numFpRegWrites            0                       # Number of times the floating registers were written (Count)
system.cpu0.executeStats0.numMemRefs                0                       # Number of memory refs (Count)
system.cpu0.executeStats0.numVecAluAccesses            0                       # Number of vector alu accesses (Count)
system.cpu0.executeStats0.numDiscardedOps            0                       # Number of ops (including micro ops) which were discarded before commit (Count)
system.cpu0.fetchStats0.numInsts                    0                       # Number of instructions fetched (thread level) (Count)
system.cpu0.fetchStats0.numOps                      0                       # Number of ops (including micro ops) fetched (thread level) (Count)
system.cpu0.fetchStats0.fetchRate                 nan                       # Number of inst fetches per cycle ((Count/Cycle))
system.cpu0.fetchStats0.branchRate                nan                       # Number of branch fetches per cycle (Ratio)
system.cpu0.fetchStats0.numFetchSuspends            0                       # Number of times Execute suspended instruction fetching (Count)
system.cpu0.icache.demandHits::switch_cpus0.inst      1077153                       # number of demand (read+write) hits (Count)
system.cpu0.icache.demandHits::total          1077153                       # number of demand (read+write) hits (Count)
system.cpu0.icache.overallHits::switch_cpus0.inst      1077153                       # number of overall hits (Count)
system.cpu0.icache.overallHits::total         1077153                       # number of overall hits (Count)
system.cpu0.icache.demandMisses::switch_cpus0.inst        65268                       # number of demand (read+write) misses (Count)
system.cpu0.icache.demandMisses::total          65268                       # number of demand (read+write) misses (Count)
system.cpu0.icache.overallMisses::switch_cpus0.inst        65268                       # number of overall misses (Count)
system.cpu0.icache.overallMisses::total         65268                       # number of overall misses (Count)
system.cpu0.icache.demandMissLatency::switch_cpus0.inst   2486379000                       # number of demand (read+write) miss ticks (Tick)
system.cpu0.icache.demandMissLatency::total   2486379000                       # number of demand (read+write) miss ticks (Tick)
system.cpu0.icache.overallMissLatency::switch_cpus0.inst   2486379000                       # number of overall miss ticks (Tick)
system.cpu0.icache.overallMissLatency::total   2486379000                       # number of overall miss ticks (Tick)
system.cpu0.icache.demandAccesses::switch_cpus0.inst      1142421                       # number of demand (read+write) accesses (Count)
system.cpu0.icache.demandAccesses::total      1142421                       # number of demand (read+write) accesses (Count)
system.cpu0.icache.overallAccesses::switch_cpus0.inst      1142421                       # number of overall (read+write) accesses (Count)
system.cpu0.icache.overallAccesses::total      1142421                       # number of overall (read+write) accesses (Count)
system.cpu0.icache.demandMissRate::switch_cpus0.inst     0.057131                       # miss rate for demand accesses (Ratio)
system.cpu0.icache.demandMissRate::total     0.057131                       # miss rate for demand accesses (Ratio)
system.cpu0.icache.overallMissRate::switch_cpus0.inst     0.057131                       # miss rate for overall accesses (Ratio)
system.cpu0.icache.overallMissRate::total     0.057131                       # miss rate for overall accesses (Ratio)
system.cpu0.icache.demandAvgMissLatency::switch_cpus0.inst 38094.916345                       # average overall miss latency in ticks ((Tick/Count))
system.cpu0.icache.demandAvgMissLatency::total 38094.916345                       # average overall miss latency in ticks ((Tick/Count))
system.cpu0.icache.overallAvgMissLatency::switch_cpus0.inst 38094.916345                       # average overall miss latency ((Tick/Count))
system.cpu0.icache.overallAvgMissLatency::total 38094.916345                       # average overall miss latency ((Tick/Count))
system.cpu0.icache.blockedCycles::no_mshrs            0                       # number of cycles access was blocked (Cycle)
system.cpu0.icache.blockedCycles::no_targets            0                       # number of cycles access was blocked (Cycle)
system.cpu0.icache.blockedCauses::no_mshrs            0                       # number of times access was blocked (Count)
system.cpu0.icache.blockedCauses::no_targets            0                       # number of times access was blocked (Count)
system.cpu0.icache.avgBlocked::no_mshrs           nan                       # average number of cycles each access was blocked ((Cycle/Count))
system.cpu0.icache.avgBlocked::no_targets          nan                       # average number of cycles each access was blocked ((Cycle/Count))
system.cpu0.icache.writebacks::writebacks        58282                       # number of writebacks (Count)
system.cpu0.icache.writebacks::total            58282                       # number of writebacks (Count)
system.cpu0.icache.demandMshrHits::switch_cpus0.inst         6988                       # number of demand (read+write) MSHR hits (Count)
system.cpu0.icache.demandMshrHits::total         6988                       # number of demand (read+write) MSHR hits (Count)
system.cpu0.icache.overallMshrHits::switch_cpus0.inst         6988                       # number of overall MSHR hits (Count)
system.cpu0.icache.overallMshrHits::total         6988                       # number of overall MSHR hits (Count)
system.cpu0.icache.demandMshrMisses::switch_cpus0.inst        58280                       # number of demand (read+write) MSHR misses (Count)
system.cpu0.icache.demandMshrMisses::total        58280                       # number of demand (read+write) MSHR misses (Count)
system.cpu0.icache.overallMshrMisses::switch_cpus0.inst        58280                       # number of overall MSHR misses (Count)
system.cpu0.icache.overallMshrMisses::total        58280                       # number of overall MSHR misses (Count)
system.cpu0.icache.demandMshrMissLatency::switch_cpus0.inst   2126118000                       # number of demand (read+write) MSHR miss ticks (Tick)
system.cpu0.icache.demandMshrMissLatency::total   2126118000                       # number of demand (read+write) MSHR miss ticks (Tick)
system.cpu0.icache.overallMshrMissLatency::switch_cpus0.inst   2126118000                       # number of overall MSHR miss ticks (Tick)
system.cpu0.icache.overallMshrMissLatency::total   2126118000                       # number of overall MSHR miss ticks (Tick)
system.cpu0.icache.demandMshrMissRate::switch_cpus0.inst     0.051014                       # mshr miss ratio for demand accesses (Ratio)
system.cpu0.icache.demandMshrMissRate::total     0.051014                       # mshr miss ratio for demand accesses (Ratio)
system.cpu0.icache.overallMshrMissRate::switch_cpus0.inst     0.051014                       # mshr miss ratio for overall accesses (Ratio)
system.cpu0.icache.overallMshrMissRate::total     0.051014                       # mshr miss ratio for overall accesses (Ratio)
system.cpu0.icache.demandAvgMshrMissLatency::switch_cpus0.inst 36481.091283                       # average overall mshr miss latency ((Tick/Count))
system.cpu0.icache.demandAvgMshrMissLatency::total 36481.091283                       # average overall mshr miss latency ((Tick/Count))
system.cpu0.icache.overallAvgMshrMissLatency::switch_cpus0.inst 36481.091283                       # average overall mshr miss latency ((Tick/Count))
system.cpu0.icache.overallAvgMshrMissLatency::total 36481.091283                       # average overall mshr miss latency ((Tick/Count))
system.cpu0.icache.replacements                 58282                       # number of replacements (Count)
system.cpu0.icache.ReadReq.hits::switch_cpus0.inst      1077153                       # number of ReadReq hits (Count)
system.cpu0.icache.ReadReq.hits::total        1077153                       # number of ReadReq hits (Count)
system.cpu0.icache.ReadReq.misses::switch_cpus0.inst        65268                       # number of ReadReq misses (Count)
system.cpu0.icache.ReadReq.misses::total        65268                       # number of ReadReq misses (Count)
system.cpu0.icache.ReadReq.missLatency::switch_cpus0.inst   2486379000                       # number of ReadReq miss ticks (Tick)
system.cpu0.icache.ReadReq.missLatency::total   2486379000                       # number of ReadReq miss ticks (Tick)
system.cpu0.icache.ReadReq.accesses::switch_cpus0.inst      1142421                       # number of ReadReq accesses(hits+misses) (Count)
system.cpu0.icache.ReadReq.accesses::total      1142421                       # number of ReadReq accesses(hits+misses) (Count)
system.cpu0.icache.ReadReq.missRate::switch_cpus0.inst     0.057131                       # miss rate for ReadReq accesses (Ratio)
system.cpu0.icache.ReadReq.missRate::total     0.057131                       # miss rate for ReadReq accesses (Ratio)
system.cpu0.icache.ReadReq.avgMissLatency::switch_cpus0.inst 38094.916345                       # average ReadReq miss latency ((Tick/Count))
system.cpu0.icache.ReadReq.avgMissLatency::total 38094.916345                       # average ReadReq miss latency ((Tick/Count))
system.cpu0.icache.ReadReq.mshrHits::switch_cpus0.inst         6988                       # number of ReadReq MSHR hits (Count)
system.cpu0.icache.ReadReq.mshrHits::total         6988                       # number of ReadReq MSHR hits (Count)
system.cpu0.icache.ReadReq.mshrMisses::switch_cpus0.inst        58280                       # number of ReadReq MSHR misses (Count)
system.cpu0.icache.ReadReq.mshrMisses::total        58280                       # number of ReadReq MSHR misses (Count)
system.cpu0.icache.ReadReq.mshrMissLatency::switch_cpus0.inst   2126118000                       # number of ReadReq MSHR miss ticks (Tick)
system.cpu0.icache.ReadReq.mshrMissLatency::total   2126118000                       # number of ReadReq MSHR miss ticks (Tick)
system.cpu0.icache.ReadReq.mshrMissRate::switch_cpus0.inst     0.051014                       # mshr miss rate for ReadReq accesses (Ratio)
system.cpu0.icache.ReadReq.mshrMissRate::total     0.051014                       # mshr miss rate for ReadReq accesses (Ratio)
system.cpu0.icache.ReadReq.avgMshrMissLatency::switch_cpus0.inst 36481.091283                       # average ReadReq mshr miss latency ((Tick/Count))
system.cpu0.icache.ReadReq.avgMshrMissLatency::total 36481.091283                       # average ReadReq mshr miss latency ((Tick/Count))
system.cpu0.icache.power_state.pwrStateResidencyTicks::UNDEFINED 116726473626000                       # Cumulative time (in ticks) in various power states (Tick)
system.cpu0.icache.tags.tagsInUse                 512                       # Average ticks per tags in use ((Tick/Count))
system.cpu0.icache.tags.totalRefs             1139155                       # Total number of references to valid blocks. (Count)
system.cpu0.icache.tags.sampledRefs             58794                       # Sample count of references to valid blocks. (Count)
system.cpu0.icache.tags.avgRefs             19.375361                       # Average number of references to valid blocks. ((Count/Count))
system.cpu0.icache.tags.warmupTick                  0                       # The tick when the warmup percentage was hit. (Tick)
system.cpu0.icache.tags.occupancies::switch_cpus0.inst          512                       # Average occupied blocks per tick, per requestor ((Count/Tick))
system.cpu0.icache.tags.avgOccs::switch_cpus0.inst            1                       # Average percentage of cache occupancy ((Ratio/Tick))
system.cpu0.icache.tags.avgOccs::total              1                       # Average percentage of cache occupancy ((Ratio/Tick))
system.cpu0.icache.tags.occupanciesTaskId::1024          512                       # Occupied blocks per task id (Count)
system.cpu0.icache.tags.ageTaskId_1024::2          208                       # Occupied blocks per task id, per block age (Count)
system.cpu0.icache.tags.ageTaskId_1024::3          165                       # Occupied blocks per task id, per block age (Count)
system.cpu0.icache.tags.ageTaskId_1024::4          139                       # Occupied blocks per task id, per block age (Count)
system.cpu0.icache.tags.ratioOccsTaskId::1024            1                       # Ratio of occupied blocks and all blocks, per task id (Ratio)
system.cpu0.icache.tags.tagAccesses           9197650                       # Number of tag accesses (Count)
system.cpu0.icache.tags.dataAccesses          9197650                       # Number of data accesses (Count)
system.cpu0.icache.tags.power_state.pwrStateResidencyTicks::UNDEFINED 116726473626000                       # Cumulative time (in ticks) in various power states (Tick)
system.cpu0.interrupts.clk_domain.clock         16000                       # Clock period in ticks (Tick)
system.cpu0.itb_walker_cache.demandHits::switch_cpus0.mmu.itb.walker         1442                       # number of demand (read+write) hits (Count)
system.cpu0.itb_walker_cache.demandHits::total         1442                       # number of demand (read+write) hits (Count)
system.cpu0.itb_walker_cache.overallHits::switch_cpus0.mmu.itb.walker         1442                       # number of overall hits (Count)
system.cpu0.itb_walker_cache.overallHits::total         1442                       # number of overall hits (Count)
system.cpu0.itb_walker_cache.demandMisses::switch_cpus0.mmu.itb.walker          488                       # number of demand (read+write) misses (Count)
system.cpu0.itb_walker_cache.demandMisses::total          488                       # number of demand (read+write) misses (Count)
system.cpu0.itb_walker_cache.overallMisses::switch_cpus0.mmu.itb.walker          488                       # number of overall misses (Count)
system.cpu0.itb_walker_cache.overallMisses::total          488                       # number of overall misses (Count)
system.cpu0.itb_walker_cache.demandMissLatency::switch_cpus0.mmu.itb.walker     16981000                       # number of demand (read+write) miss ticks (Tick)
system.cpu0.itb_walker_cache.demandMissLatency::total     16981000                       # number of demand (read+write) miss ticks (Tick)
system.cpu0.itb_walker_cache.overallMissLatency::switch_cpus0.mmu.itb.walker     16981000                       # number of overall miss ticks (Tick)
system.cpu0.itb_walker_cache.overallMissLatency::total     16981000                       # number of overall miss ticks (Tick)
system.cpu0.itb_walker_cache.demandAccesses::switch_cpus0.mmu.itb.walker         1930                       # number of demand (read+write) accesses (Count)
system.cpu0.itb_walker_cache.demandAccesses::total         1930                       # number of demand (read+write) accesses (Count)
system.cpu0.itb_walker_cache.overallAccesses::switch_cpus0.mmu.itb.walker         1930                       # number of overall (read+write) accesses (Count)
system.cpu0.itb_walker_cache.overallAccesses::total         1930                       # number of overall (read+write) accesses (Count)
system.cpu0.itb_walker_cache.demandMissRate::switch_cpus0.mmu.itb.walker     0.252850                       # miss rate for demand accesses (Ratio)
system.cpu0.itb_walker_cache.demandMissRate::total     0.252850                       # miss rate for demand accesses (Ratio)
system.cpu0.itb_walker_cache.overallMissRate::switch_cpus0.mmu.itb.walker     0.252850                       # miss rate for overall accesses (Ratio)
system.cpu0.itb_walker_cache.overallMissRate::total     0.252850                       # miss rate for overall accesses (Ratio)
system.cpu0.itb_walker_cache.demandAvgMissLatency::switch_cpus0.mmu.itb.walker 34797.131148                       # average overall miss latency in ticks ((Tick/Count))
system.cpu0.itb_walker_cache.demandAvgMissLatency::total 34797.131148                       # average overall miss latency in ticks ((Tick/Count))
system.cpu0.itb_walker_cache.overallAvgMissLatency::switch_cpus0.mmu.itb.walker 34797.131148                       # average overall miss latency ((Tick/Count))
system.cpu0.itb_walker_cache.overallAvgMissLatency::total 34797.131148                       # average overall miss latency ((Tick/Count))
system.cpu0.itb_walker_cache.blockedCycles::no_mshrs            0                       # number of cycles access was blocked (Cycle)
system.cpu0.itb_walker_cache.blockedCycles::no_targets            0                       # number of cycles access was blocked (Cycle)
system.cpu0.itb_walker_cache.blockedCauses::no_mshrs            0                       # number of times access was blocked (Count)
system.cpu0.itb_walker_cache.blockedCauses::no_targets            0                       # number of times access was blocked (Count)
system.cpu0.itb_walker_cache.avgBlocked::no_mshrs          nan                       # average number of cycles each access was blocked ((Cycle/Count))
system.cpu0.itb_walker_cache.avgBlocked::no_targets          nan                       # average number of cycles each access was blocked ((Cycle/Count))
system.cpu0.itb_walker_cache.writebacks::writebacks           37                       # number of writebacks (Count)
system.cpu0.itb_walker_cache.writebacks::total           37                       # number of writebacks (Count)
system.cpu0.itb_walker_cache.demandMshrMisses::switch_cpus0.mmu.itb.walker          488                       # number of demand (read+write) MSHR misses (Count)
system.cpu0.itb_walker_cache.demandMshrMisses::total          488                       # number of demand (read+write) MSHR misses (Count)
system.cpu0.itb_walker_cache.overallMshrMisses::switch_cpus0.mmu.itb.walker          488                       # number of overall MSHR misses (Count)
system.cpu0.itb_walker_cache.overallMshrMisses::total          488                       # number of overall MSHR misses (Count)
system.cpu0.itb_walker_cache.demandMshrMissLatency::switch_cpus0.mmu.itb.walker     16005000                       # number of demand (read+write) MSHR miss ticks (Tick)
system.cpu0.itb_walker_cache.demandMshrMissLatency::total     16005000                       # number of demand (read+write) MSHR miss ticks (Tick)
system.cpu0.itb_walker_cache.overallMshrMissLatency::switch_cpus0.mmu.itb.walker     16005000                       # number of overall MSHR miss ticks (Tick)
system.cpu0.itb_walker_cache.overallMshrMissLatency::total     16005000                       # number of overall MSHR miss ticks (Tick)
system.cpu0.itb_walker_cache.demandMshrMissRate::switch_cpus0.mmu.itb.walker     0.252850                       # mshr miss ratio for demand accesses (Ratio)
system.cpu0.itb_walker_cache.demandMshrMissRate::total     0.252850                       # mshr miss ratio for demand accesses (Ratio)
system.cpu0.itb_walker_cache.overallMshrMissRate::switch_cpus0.mmu.itb.walker     0.252850                       # mshr miss ratio for overall accesses (Ratio)
system.cpu0.itb_walker_cache.overallMshrMissRate::total     0.252850                       # mshr miss ratio for overall accesses (Ratio)
system.cpu0.itb_walker_cache.demandAvgMshrMissLatency::switch_cpus0.mmu.itb.walker 32797.131148                       # average overall mshr miss latency ((Tick/Count))
system.cpu0.itb_walker_cache.demandAvgMshrMissLatency::total 32797.131148                       # average overall mshr miss latency ((Tick/Count))
system.cpu0.itb_walker_cache.overallAvgMshrMissLatency::switch_cpus0.mmu.itb.walker 32797.131148                       # average overall mshr miss latency ((Tick/Count))
system.cpu0.itb_walker_cache.overallAvgMshrMissLatency::total 32797.131148                       # average overall mshr miss latency ((Tick/Count))
system.cpu0.itb_walker_cache.replacements          408                       # number of replacements (Count)
system.cpu0.itb_walker_cache.ReadReq.hits::switch_cpus0.mmu.itb.walker         1442                       # number of ReadReq hits (Count)
system.cpu0.itb_walker_cache.ReadReq.hits::total         1442                       # number of ReadReq hits (Count)
system.cpu0.itb_walker_cache.ReadReq.misses::switch_cpus0.mmu.itb.walker          488                       # number of ReadReq misses (Count)
system.cpu0.itb_walker_cache.ReadReq.misses::total          488                       # number of ReadReq misses (Count)
system.cpu0.itb_walker_cache.ReadReq.missLatency::switch_cpus0.mmu.itb.walker     16981000                       # number of ReadReq miss ticks (Tick)
system.cpu0.itb_walker_cache.ReadReq.missLatency::total     16981000                       # number of ReadReq miss ticks (Tick)
system.cpu0.itb_walker_cache.ReadReq.accesses::switch_cpus0.mmu.itb.walker         1930                       # number of ReadReq accesses(hits+misses) (Count)
system.cpu0.itb_walker_cache.ReadReq.accesses::total         1930                       # number of ReadReq accesses(hits+misses) (Count)
system.cpu0.itb_walker_cache.ReadReq.missRate::switch_cpus0.mmu.itb.walker     0.252850                       # miss rate for ReadReq accesses (Ratio)
system.cpu0.itb_walker_cache.ReadReq.missRate::total     0.252850                       # miss rate for ReadReq accesses (Ratio)
system.cpu0.itb_walker_cache.ReadReq.avgMissLatency::switch_cpus0.mmu.itb.walker 34797.131148                       # average ReadReq miss latency ((Tick/Count))
system.cpu0.itb_walker_cache.ReadReq.avgMissLatency::total 34797.131148                       # average ReadReq miss latency ((Tick/Count))
system.cpu0.itb_walker_cache.ReadReq.mshrMisses::switch_cpus0.mmu.itb.walker          488                       # number of ReadReq MSHR misses (Count)
system.cpu0.itb_walker_cache.ReadReq.mshrMisses::total          488                       # number of ReadReq MSHR misses (Count)
system.cpu0.itb_walker_cache.ReadReq.mshrMissLatency::switch_cpus0.mmu.itb.walker     16005000                       # number of ReadReq MSHR miss ticks (Tick)
system.cpu0.itb_walker_cache.ReadReq.mshrMissLatency::total     16005000                       # number of ReadReq MSHR miss ticks (Tick)
system.cpu0.itb_walker_cache.ReadReq.mshrMissRate::switch_cpus0.mmu.itb.walker     0.252850                       # mshr miss rate for ReadReq accesses (Ratio)
system.cpu0.itb_walker_cache.ReadReq.mshrMissRate::total     0.252850                       # mshr miss rate for ReadReq accesses (Ratio)
system.cpu0.itb_walker_cache.ReadReq.avgMshrMissLatency::switch_cpus0.mmu.itb.walker 32797.131148                       # average ReadReq mshr miss latency ((Tick/Count))
system.cpu0.itb_walker_cache.ReadReq.avgMshrMissLatency::total 32797.131148                       # average ReadReq mshr miss latency ((Tick/Count))
system.cpu0.itb_walker_cache.power_state.pwrStateResidencyTicks::UNDEFINED 116726473626000                       # Cumulative time (in ticks) in various power states (Tick)
system.cpu0.itb_walker_cache.tags.tagsInUse    13.552742                       # Average ticks per tags in use ((Tick/Count))
system.cpu0.itb_walker_cache.tags.totalRefs         1970                       # Total number of references to valid blocks. (Count)
system.cpu0.itb_walker_cache.tags.sampledRefs          504                       # Sample count of references to valid blocks. (Count)
system.cpu0.itb_walker_cache.tags.avgRefs     3.908730                       # Average number of references to valid blocks. ((Count/Count))
system.cpu0.itb_walker_cache.tags.warmupTick            0                       # The tick when the warmup percentage was hit. (Tick)
system.cpu0.itb_walker_cache.tags.occupancies::switch_cpus0.mmu.itb.walker    13.552742                       # Average occupied blocks per tick, per requestor ((Count/Tick))
system.cpu0.itb_walker_cache.tags.avgOccs::switch_cpus0.mmu.itb.walker     0.847046                       # Average percentage of cache occupancy ((Ratio/Tick))
system.cpu0.itb_walker_cache.tags.avgOccs::total     0.847046                       # Average percentage of cache occupancy ((Ratio/Tick))
system.cpu0.itb_walker_cache.tags.occupanciesTaskId::1024           16                       # Occupied blocks per task id (Count)
system.cpu0.itb_walker_cache.tags.ageTaskId_1024::3            4                       # Occupied blocks per task id, per block age (Count)
system.cpu0.itb_walker_cache.tags.ageTaskId_1024::4           12                       # Occupied blocks per task id, per block age (Count)
system.cpu0.itb_walker_cache.tags.ratioOccsTaskId::1024            1                       # Ratio of occupied blocks and all blocks, per task id (Ratio)
system.cpu0.itb_walker_cache.tags.tagAccesses         4348                       # Number of tag accesses (Count)
system.cpu0.itb_walker_cache.tags.dataAccesses         4348                       # Number of data accesses (Count)
system.cpu0.itb_walker_cache.tags.power_state.pwrStateResidencyTicks::UNDEFINED 116726473626000                       # Cumulative time (in ticks) in various power states (Tick)
system.cpu0.mmu.dtb.rdAccesses                      0                       # TLB accesses on read requests (Count)
system.cpu0.mmu.dtb.wrAccesses                      0                       # TLB accesses on write requests (Count)
system.cpu0.mmu.dtb.rdMisses                        0                       # TLB misses on read requests (Count)
system.cpu0.mmu.dtb.wrMisses                        0                       # TLB misses on write requests (Count)
system.cpu0.mmu.dtb.walker.power_state.pwrStateResidencyTicks::UNDEFINED 116726473626000                       # Cumulative time (in ticks) in various power states (Tick)
system.cpu0.mmu.itb.rdAccesses                      0                       # TLB accesses on read requests (Count)
system.cpu0.mmu.itb.wrAccesses                      0                       # TLB accesses on write requests (Count)
system.cpu0.mmu.itb.rdMisses                        0                       # TLB misses on read requests (Count)
system.cpu0.mmu.itb.wrMisses                        0                       # TLB misses on write requests (Count)
system.cpu0.mmu.itb.walker.power_state.pwrStateResidencyTicks::UNDEFINED 116726473626000                       # Cumulative time (in ticks) in various power states (Tick)
system.cpu0.power_state.pwrStateResidencyTicks::OFF 99122020709000                       # Cumulative time (in ticks) in various power states (Tick)
system.cpu0.thread_0.numInsts                       0                       # Number of Instructions committed (Count)
system.cpu0.thread_0.numOps                         0                       # Number of Ops committed (Count)
system.cpu0.thread_0.numMemRefs                     0                       # Number of Memory References (Count)
system.cpu1.numCycles                               0                       # Number of cpu cycles simulated (Cycle)
system.cpu1.cpi                                   nan                       # CPI: cycles per instruction (core level) ((Cycle/Count))
system.cpu1.ipc                                   nan                       # IPC: instructions per cycle (core level) ((Count/Cycle))
system.cpu1.numWorkItemsStarted                     0                       # Number of work items this cpu started (Count)
system.cpu1.numWorkItemsCompleted                   0                       # Number of work items this cpu completed (Count)
system.cpu1.commitStats0.numOps                     0                       # Number of ops (including micro ops) committed (thread level) (Count)
system.cpu1.commitStats0.numInstsNotNOP             0                       # Number of instructions committed excluding NOPs or prefetches (Count)
system.cpu1.commitStats0.numOpsNotNOP               0                       # Number of Ops (including micro ops) Simulated (Count)
system.cpu1.commitStats0.cpi                      nan                       # CPI: cycles per instruction (thread level) ((Cycle/Count))
system.cpu1.commitStats0.ipc                      nan                       # IPC: instructions per cycle (thread level) ((Count/Cycle))
system.cpu1.commitStats0.numMemRefs                 0                       # Number of memory references committed (Count)
system.cpu1.commitStats0.numFpInsts                 0                       # Number of float instructions (Count)
system.cpu1.commitStats0.numIntInsts                0                       # Number of integer instructions (Count)
system.cpu1.commitStats0.numLoadInsts               0                       # Number of load instructions (Count)
system.cpu1.commitStats0.numStoreInsts              0                       # Number of store instructions (Count)
system.cpu1.commitStats0.numVecInsts                0                       # Number of vector instructions (Count)
[...]
system.switch_cpus1.lsq0.loadToUse::170-179        67628      0.05%     99.42% # Distribution of cycle latency between the first time a load is issued and its completion (Unspecified)
system.switch_cpus1.lsq0.loadToUse::180-189        86843      0.06%     99.48% # Distribution of cycle latency between the first time a load is issued and its completion (Unspecified)
system.switch_cpus1.lsq0.loadToUse::190-199        85958      0.06%     99.54% # Distribution of cycle latency between the first time a load is issued and its completion (Unspecified)
system.switch_cpus1.lsq0.loadToUse::200-209        51909      0.04%     99.58% # Distribution of cycle latency between the first time a load is issued and its completion (Unspecified)
system.switch_cpus1.lsq0.loadToUse::210-219        44414      0.03%     99.61% # Distribution of cycle latency between the first time a load is issued and its completion (Unspecified)
system.switch_cpus1.lsq0.loadToUse::220-229        51799      0.04%     99.65% # Distribution of cycle latency between the first time a load is issued and its completion (Unspecified)
system.switch_cpus1.lsq0.loadToUse::230-239        32827      0.02%     99.67% # Distribution of cycle latency between the first time a load is issued and its completion (Unspecified)
system.switch_cpus1.lsq0.loadToUse::240-249        42001      0.03%     99.70% # Distribution of cycle latency between the first time a load is issued and its completion (Unspecified)
system.switch_cpus1.lsq0.loadToUse::250-259        26711      0.02%     99.72% # Distribution of cycle latency between the first time a load is issued and its completion (Unspecified)
system.switch_cpus1.lsq0.loadToUse::260-269        13394      0.01%     99.73% # Distribution of cycle latency between the first time a load is issued and its completion (Unspecified)
system.switch_cpus1.lsq0.loadToUse::270-279        17300      0.01%     99.74% # Distribution of cycle latency between the first time a load is issued and its completion (Unspecified)
system.switch_cpus1.lsq0.loadToUse::280-289        18026      0.01%     99.75% # Distribution of cycle latency between the first time a load is issued and its completion (Unspecified)
system.switch_cpus1.lsq0.loadToUse::290-299        10808      0.01%     99.76% # Distribution of cycle latency between the first time a load is issued and its completion (Unspecified)
system.switch_cpus1.lsq0.loadToUse::overflows       344731      0.24%    100.00% # Distribution of cycle latency between the first time a load is issued and its completion (Unspecified)
system.switch_cpus1.lsq0.loadToUse::min_value            2                       # Distribution of cycle latency between the first time a load is issued and its completion (Unspecified)
system.switch_cpus1.lsq0.loadToUse::max_value         4579                       # Distribution of cycle latency between the first time a load is issued and its completion (Unspecified)
system.switch_cpus1.lsq0.loadToUse::total    142918175                       # Distribution of cycle latency between the first time a load is issued and its completion (Unspecified)
system.switch_cpus1.mmu.dtb.rdAccesses      153209986                       # TLB accesses on read requests (Count)
system.switch_cpus1.mmu.dtb.wrAccesses      110366559                       # TLB accesses on write requests (Count)
system.switch_cpus1.mmu.dtb.rdMisses          2972008                       # TLB misses on read requests (Count)
system.switch_cpus1.mmu.dtb.wrMisses           140341                       # TLB misses on write requests (Count)
system.switch_cpus1.mmu.dtb.walker.power_state.pwrStateResidencyTicks::UNDEFINED 116726473626000                       # Cumulative time (in ticks) in various power states (Tick)
system.switch_cpus1.mmu.itb.rdAccesses              0                       # TLB accesses on read requests (Count)
system.switch_cpus1.mmu.itb.wrAccesses       32113043                       # TLB accesses on write requests (Count)
system.switch_cpus1.mmu.itb.rdMisses                0                       # TLB misses on read requests (Count)
system.switch_cpus1.mmu.itb.wrMisses            64457                       # TLB misses on write requests (Count)
system.switch_cpus1.mmu.itb.walker.power_state.pwrStateResidencyTicks::UNDEFINED 116726473626000                       # Cumulative time (in ticks) in various power states (Tick)
system.switch_cpus1.power_state.numTransitions         2397                       # Number of power state transitions (Count)
system.switch_cpus1.power_state.ticksClkGated::samples         1199                       # Distribution of time spent in the clock gated state (Tick)
system.switch_cpus1.power_state.ticksClkGated::mean 2546056432.026689                       # Distribution of time spent in the clock gated state (Tick)
system.switch_cpus1.power_state.ticksClkGated::stdev 1094088876.290781                       # Distribution of time spent in the clock gated state (Tick)
system.switch_cpus1.power_state.ticksClkGated::1000-5e+10         1199    100.00%    100.00% # Distribution of time spent in the clock gated state (Tick)
system.switch_cpus1.power_state.ticksClkGated::min_value       201000                       # Distribution of time spent in the clock gated state (Tick)
system.switch_cpus1.power_state.ticksClkGated::max_value   3026174000                       # Distribution of time spent in the clock gated state (Tick)
system.switch_cpus1.power_state.ticksClkGated::total         1199                       # Distribution of time spent in the clock gated state (Tick)
system.switch_cpus1.power_state.pwrStateResidencyTicks::ON 783384753000                       # Cumulative time (in ticks) in various power states (Tick)
system.switch_cpus1.power_state.pwrStateResidencyTicks::CLK_GATED 3052721662000                       # Cumulative time (in ticks) in various power states (Tick)
system.switch_cpus1.rename.squashCycles       1716160                       # Number of cycles rename is squashing (Cycle)
system.switch_cpus1.rename.idleCycles       107857022                       # Number of cycles rename is idle (Cycle)
system.switch_cpus1.rename.blockCycles      234953143                       # Number of cycles rename is blocking (Cycle)
system.switch_cpus1.rename.serializeStallCycles     66801044                       # count of cycles rename stalled for serializing inst (Cycle)
system.switch_cpus1.rename.runCycles        193563128                       # Number of cycles rename is running (Cycle)
system.switch_cpus1.rename.unblockCycles    165272792                       # Number of cycles rename is unblocking (Cycle)
system.switch_cpus1.rename.renamedInsts    1113196351                       # Number of instructions processed by rename (Count)
system.switch_cpus1.rename.ROBFullEvents     57260161                       # Number of times rename has blocked due to ROB full (Count)
system.switch_cpus1.rename.IQFullEvents        684324                       # Number of times rename has blocked due to IQ full (Count)
system.switch_cpus1.rename.LQFullEvents          4923                       # Number of times rename has blocked due to LQ full (Count)
system.switch_cpus1.rename.SQFullEvents      71342012                       # Number of times rename has blocked due to SQ full (Count)
system.switch_cpus1.rename.fullRegistersEvents       130750                       # Number of times there has been no free registers (Count)
system.switch_cpus1.rename.renamedOperands   1822089856                       # Number of destination operands rename has renamed (Count)
system.switch_cpus1.rename.lookups         3932803410                       # Number of register rename lookups that rename has made (Count)
system.switch_cpus1.rename.intLookups      1413798083                       # Number of integer rename lookups (Count)
system.switch_cpus1.rename.fpLookups         27604324                       # Number of floating rename lookups (Count)
system.switch_cpus1.rename.committedMaps   1697082935                       # Number of HB maps that are committed (Count)
system.switch_cpus1.rename.undoneMaps       125006866                       # Number of HB maps that are undone due to squashing (Count)
system.switch_cpus1.rename.serializing        7169399                       # count of serializing insts renamed (Count)
system.switch_cpus1.rename.tempSerializing       407182                       # count of temporary serializing insts renamed (Count)
system.switch_cpus1.rename.skidInsts        314613340                       # count of insts added to the skid buffer (Count)
system.switch_cpus1.rob.reads              1679027413                       # The number of ROB reads (Count)
system.switch_cpus1.rob.writes             2225417712                       # The number of ROB writes (Count)
system.switch_cpus1.thread_0.numInsts       290037208                       # Number of Instructions committed (Count)
system.switch_cpus1.thread_0.numOps        1040403033                       # Number of Ops committed (Count)
system.switch_cpus1.thread_0.numMemRefs             0                       # Number of Memory References (Count)
system.tol2bus.transDist::ReadReq                5546                       # Transaction distribution (Count)
system.tol2bus.transDist::ReadResp            8086864                       # Transaction distribution (Count)
system.tol2bus.transDist::WriteReq               8605                       # Transaction distribution (Count)
system.tol2bus.transDist::WriteResp              8605                       # Transaction distribution (Count)
system.tol2bus.transDist::WritebackDirty      3875922                       # Transaction distribution (Count)
system.tol2bus.transDist::WritebackClean      1444591                       # Transaction distribution (Count)
system.tol2bus.transDist::CleanEvict          6503763                       # Transaction distribution (Count)
system.tol2bus.transDist::UpgradeReq            11624                       # Transaction distribution (Count)
system.tol2bus.transDist::UpgradeResp           11624                       # Transaction distribution (Count)
system.tol2bus.transDist::ReadExReq           1635442                       # Transaction distribution (Count)
system.tol2bus.transDist::ReadExResp          1635442                       # Transaction distribution (Count)
system.tol2bus.transDist::ReadCleanReq        1444591                       # Transaction distribution (Count)
system.tol2bus.transDist::ReadSharedReq       6636843                       # Transaction distribution (Count)
system.tol2bus.transDist::InvalidateReq        641664                       # Transaction distribution (Count)
system.tol2bus.transDist::InvalidateResp        69769                       # Transaction distribution (Count)
system.tol2bus.pktCount_system.cpu0.icache.mem_side_port::system.l2.cpu_side_port       174829                       # Packet count per connected requestor and responder (Count)
system.tol2bus.pktCount_system.cpu0.dcache.mem_side_port::system.l2.cpu_side_port       112979                       # Packet count per connected requestor and responder (Count)
system.tol2bus.pktCount_system.cpu0.itb_walker_cache.mem_side_port::system.l2.cpu_side_port         1300                       # Packet count per connected requestor and responder (Count)
system.tol2bus.pktCount_system.cpu0.dtb_walker_cache.mem_side_port::system.l2.cpu_side_port        19066                       # Packet count per connected requestor and responder (Count)
system.tol2bus.pktCount_system.cpu1.icache.mem_side_port::system.l2.cpu_side_port      4158897                       # Packet count per connected requestor and responder (Count)
system.tol2bus.pktCount_system.cpu1.dcache.mem_side_port::system.l2.cpu_side_port     18054539                       # Packet count per connected requestor and responder (Count)
system.tol2bus.pktCount_system.cpu1.itb_walker_cache.mem_side_port::system.l2.cpu_side_port       151240                       # Packet count per connected requestor and responder (Count)
system.tol2bus.pktCount_system.cpu1.dtb_walker_cache.mem_side_port::system.l2.cpu_side_port      6422993                       # Packet count per connected requestor and responder (Count)
system.tol2bus.pktCount::total               29095843                       # Packet count per connected requestor and responder (Count)
system.tol2bus.pktSize_system.cpu0.icache.mem_side_port::system.l2.cpu_side_port      7459136                       # Cumulative packet size per connected requestor and responder (Byte)
system.tol2bus.pktSize_system.cpu0.dcache.mem_side_port::system.l2.cpu_side_port      3258640                       # Cumulative packet size per connected requestor and responder (Byte)
system.tol2bus.pktSize_system.cpu0.itb_walker_cache.mem_side_port::system.l2.cpu_side_port        28224                       # Cumulative packet size per connected requestor and responder (Byte)
system.tol2bus.pktSize_system.cpu0.dtb_walker_cache.mem_side_port::system.l2.cpu_side_port       470528                       # Cumulative packet size per connected requestor and responder (Byte)
system.tol2bus.pktSize_system.cpu1.icache.mem_side_port::system.l2.cpu_side_port    177445504                       # Cumulative packet size per connected requestor and responder (Byte)
system.tol2bus.pktSize_system.cpu1.dcache.mem_side_port::system.l2.cpu_side_port    560875931                       # Cumulative packet size per connected requestor and responder (Byte)
system.tol2bus.pktSize_system.cpu1.itb_walker_cache.mem_side_port::system.l2.cpu_side_port      3284992                       # Cumulative packet size per connected requestor and responder (Byte)
system.tol2bus.pktSize_system.cpu1.dtb_walker_cache.mem_side_port::system.l2.cpu_side_port    147719680                       # Cumulative packet size per connected requestor and responder (Byte)
system.tol2bus.pktSize::total               900542635                       # Cumulative packet size per connected requestor and responder (Byte)
system.tol2bus.snoops                         2996683                       # Total snoops (Count)
system.tol2bus.snoopTraffic                  61986944                       # Total snoop traffic (Byte)
system.tol2bus.snoopFanout::samples          12574930                       # Request fanout histogram (Count)
system.tol2bus.snoopFanout::mean             0.060694                       # Request fanout histogram (Count)
system.tol2bus.snoopFanout::stdev            0.249610                       # Request fanout histogram (Count)
system.tol2bus.snoopFanout::underflows              0      0.00%      0.00% # Request fanout histogram (Count)
system.tol2bus.snoopFanout::0                11842317     94.17%     94.17% # Request fanout histogram (Count)
system.tol2bus.snoopFanout::1                  704660      5.60%     99.78% # Request fanout histogram (Count)
system.tol2bus.snoopFanout::2                   25308      0.20%     99.98% # Request fanout histogram (Count)
system.tol2bus.snoopFanout::3                    2629      0.02%    100.00% # Request fanout histogram (Count)
system.tol2bus.snoopFanout::4                      16      0.00%    100.00% # Request fanout histogram (Count)
system.tol2bus.snoopFanout::5                       0      0.00%    100.00% # Request fanout histogram (Count)
system.tol2bus.snoopFanout::6                       0      0.00%    100.00% # Request fanout histogram (Count)
system.tol2bus.snoopFanout::7                       0      0.00%    100.00% # Request fanout histogram (Count)
system.tol2bus.snoopFanout::8                       0      0.00%    100.00% # Request fanout histogram (Count)
system.tol2bus.snoopFanout::overflows               0      0.00%    100.00% # Request fanout histogram (Count)
system.tol2bus.snoopFanout::min_value               0                       # Request fanout histogram (Count)
system.tol2bus.snoopFanout::max_value               4                       # Request fanout histogram (Count)
system.tol2bus.snoopFanout::total            12574930                       # Request fanout histogram (Count)
system.tol2bus.power_state.pwrStateResidencyTicks::UNDEFINED 116726473626000                       # Cumulative time (in ticks) in various power states (Tick)
system.tol2bus.reqLayer0.occupancy        28268776996                       # Layer occupancy (ticks) (Tick)
system.tol2bus.reqLayer0.utilization              0.0                       # Layer utilization (Ratio)
system.tol2bus.respLayer0.occupancy         175029816                       # Layer occupancy (ticks) (Tick)
system.tol2bus.respLayer0.utilization             0.0                       # Layer utilization (Ratio)
system.tol2bus.respLayer1.occupancy         109338851                       # Layer occupancy (ticks) (Tick)
system.tol2bus.respLayer1.utilization             0.0                       # Layer utilization (Ratio)
system.tol2bus.respLayer2.occupancy           1464000                       # Layer occupancy (ticks) (Tick)
system.tol2bus.respLayer2.utilization             0.0                       # Layer utilization (Ratio)
system.tol2bus.respLayer3.occupancy          19505979                       # Layer occupancy (ticks) (Tick)
system.tol2bus.respLayer3.utilization             0.0                       # Layer utilization (Ratio)
system.tol2bus.respLayer4.occupancy        4164454465                       # Layer occupancy (ticks) (Tick)
system.tol2bus.respLayer4.utilization             0.0                       # Layer utilization (Ratio)
system.tol2bus.respLayer5.occupancy       18081546726                       # Layer occupancy (ticks) (Tick)
system.tol2bus.respLayer5.utilization             0.0                       # Layer utilization (Ratio)
system.tol2bus.respLayer6.occupancy         152890775                       # Layer occupancy (ticks) (Tick)
system.tol2bus.respLayer6.utilization             0.0                       # Layer utilization (Ratio)
system.tol2bus.respLayer7.occupancy        6497586553                       # Layer occupancy (ticks) (Tick)
system.tol2bus.respLayer7.utilization             0.0                       # Layer utilization (Ratio)
system.tol2bus.snoopLayer0.occupancy         78423780                       # Layer occupancy (ticks) (Tick)
system.tol2bus.snoopLayer0.utilization            0.0                       # Layer utilization (Ratio)
system.tol2bus.snoop_filter.totRequests      19360183                       # Total number of requests made to the snoop filter. (Count)
system.tol2bus.snoop_filter.hitSingleRequests      9611550                       # Number of requests hitting in the snoop filter with a single holder of the requested data. (Count)
system.tol2bus.snoop_filter.hitMultiRequests       657525                       # Number of requests hitting in the snoop filter with multiple (>1) holders of the requested data. (Count)
system.tol2bus.snoop_filter.totSnoops           99054                       # Total number of snoops made to the snoop filter. (Count)
system.tol2bus.snoop_filter.hitSingleSnoops        97940                       # Number of snoops hitting in the snoop filter with a single holder of the requested data. (Count)
system.tol2bus.snoop_filter.hitMultiSnoops         1114                       # Number of snoops hitting in the snoop filter with multiple (>1) holders of the requested data. (Count)
system.voltage_domain.voltage                       1                       # Voltage in Volts (Volt)
system.workload.inst.arm                            0                       # number of arm instructions executed (Count)
system.workload.inst.quiesce                        0                       # number of quiesce instructions executed (Count)

---------- End Simulation Statistics   ----------
